ligand-14
     RDKit          3D

 35 39  0  0  0  0  0  0  0  0999 V2000
   25.9100   18.5000   17.6400 C   0  0  0  0  0  0  0  0  0  0  0  0
   26.6400   17.0100   18.1600 S   0  0  0  0  0  0  0  0  0  0  0  0
   27.0300   17.5300   19.8000 C   0  0  0  0  0  0  0  0  0  0  0  0
   28.3700   17.7500   20.1700 C   0  0  0  0  0  0  0  0  0  0  0  0
   28.6900   18.1500   21.4600 C   0  0  0  0  0  0  0  0  0  0  0  0
   27.6700   18.3000   22.4000 C   0  0  0  0  0  0  0  0  0  0  0  0
   26.3500   18.0900   22.0300 C   0  0  0  0  0  0  0  0  0  0  0  0
   25.9800   17.7300   20.7500 C   0  0  0  0  0  0  0  0  0  0  0  0
   24.5000   17.4700   20.4000 C   0  0  0  0  0  0  0  0  0  0  0  0
   24.2300   15.9600   20.3400 C   0  0  0  0  0  0  0  0  0  0  0  0
   23.8300   15.6700   21.7800 C   0  0  0  0  0  0  0  0  0  0  0  0
   22.9700   16.9000   22.1500 C   0  0  0  0  0  0  0  0  0  0  0  0
   23.5400   18.0000   21.3700 N   0  0  0  0  0  0  0  0  0  0  0  0
   23.1900   19.2800   21.5400 C   0  0  0  0  0  0  0  0  0  0  0  0
   22.3600   19.5400   22.4100 O   0  0  0  0  0  0  0  0  0  0  0  0
   23.8700   20.3300   20.6700 C   0  0  0  0  0  0  0  0  0  0  0  0
   23.1400   21.5500   20.8700 N   0  0  0  0  0  0  0  0  0  0  0  0
   22.0200   21.7700   20.1600 C   0  0  0  0  0  0  0  0  0  0  0  0
   21.6700   20.9900   19.2500 O   0  0  0  0  0  0  0  0  0  0  0  0
   20.1100   23.2700   19.8100 C   0  0  0  0  0  0  0  0  0  0  0  0
   19.0200   23.6000   20.8300 C   0  0  0  0  0  0  0  0  0  0  0  0
   18.2500   24.7400   20.6800 C   0  0  0  0  0  0  0  0  0  0  0  0
   17.2000   25.0200   21.5600 C   0  0  0  0  0  0  0  0  0  0  0  0
   16.4000   26.3100   21.3900 C   0  0  0  0  0  0  0  0  0  0  0  0
   15.0000   26.1100   21.9700 C   0  0  0  0  0  0  0  0  0  0  0  0
   15.1200   25.6900   23.4400 C   0  0  0  0  0  0  0  0  0  0  0  0
   15.8900   24.4300   23.5100 N   0  0  0  0  0  0  0  0  0  0  0  0
   16.9500   24.1700   22.6200 C   0  0  0  0  0  0  0  0  0  0  0  0
   17.7200   23.0100   22.7800 C   0  0  0  0  0  0  0  0  0  0  0  0
   18.7500   22.7500   21.8900 C   0  0  0  0  0  0  0  0  0  0  0  0
   15.8400   26.7900   24.2400 C   0  0  0  0  0  0  0  0  0  0  0  0
   14.9700   27.9400   24.3300 O   0  0  0  0  0  0  0  0  0  0  0  0
   17.1500   27.1900   23.5700 C   0  0  0  0  0  0  0  0  0  0  0  0
   16.9800   27.4000   22.1600 O   0  0  0  0  0  0  0  0  0  0  0  0
   21.3200   22.9800   20.5600 N   0  0  0  0  0  0  0  0  0  0  0  0
  2  1  1  0
  3  2  1  0
  4  3  1  0
  5  4  1  0
  6  5  1  0
  7  6  1  0
  8  3  1  0
  8  7  1  0
  9  8  1  0
 10  9  1  0
 11 10  1  0
 12 11  1  0
 13  9  1  0
 13 12  1  0
 14 13  1  0
 15 14  1  0
 16 14  1  0
 17 16  1  0
 18 17  1  0
 19 18  1  0
 21 20  1  0
 22 21  1  0
 23 22  1  0
 24 23  1  0
 25 24  1  0
 26 25  1  0
 27 26  1  0
 28 27  1  0
 28 23  1  0
 29 28  1  0
 30 21  1  0
 30 29  1  0
 31 26  1  0
 32 31  1  0
 33 31  1  0
 34 24  1  0
 34 33  1  0
 35 20  1  0
 35 18  1  0
M  END
$$$$
