ligand-39
     RDKit          3D

 31 36  0  0  0  0  0  0  0  0999 V2000
   20.4400   22.3200   18.8400 C   0  0  0  0  0  0  0  0  0  0  0  0
   19.2600   22.5800   19.8000 C   0  0  0  0  0  0  0  0  0  0  0  0
   21.0300   20.8200   18.9700 N   0  0  0  0  0  0  0  0  0  0  0  0
   22.9800   21.5300   18.5400 O   0  0  0  0  0  0  0  0  0  0  0  0
   18.9500   21.6400   20.7800 C   0  0  0  0  0  0  0  0  0  0  0  0
   22.6100   20.6500   18.8000 C   0  0  0  0  0  0  0  0  0  0  0  0
   17.9000   21.8700   21.6600 C   0  0  0  0  0  0  0  0  0  0  0  0
   23.5000   19.7100   19.0200 C   0  0  0  0  0  0  0  0  0  0  0  0
   17.1200   23.0200   21.5200 C   0  0  0  0  0  0  0  0  0  0  0  0
   17.4000   23.9400   20.4900 C   0  0  0  0  0  0  0  0  0  0  0  0
   23.7200   18.1600   19.2200 N   0  0  0  0  0  0  0  0  0  0  0  0
   18.4800   23.7200   19.6400 C   0  0  0  0  0  0  0  0  0  0  0  0
   24.0600   17.1700   18.3800 C   0  0  0  0  0  0  0  0  0  0  0  0
   24.5200   17.2900   17.2700 O   0  0  0  0  0  0  0  0  0  0  0  0
   16.5900   25.2400   20.3600 C   0  0  0  0  0  0  0  0  0  0  0  0
   23.7600   15.8300   19.0200 C   0  0  0  0  0  0  0  0  0  0  0  0
   25.1000   15.0600   19.3700 C   0  0  0  0  0  0  0  0  0  0  0  0
   16.0500   23.2600   22.4300 N   0  0  0  0  0  0  0  0  0  0  0  0
   26.1700   16.0300   19.9800 C   0  0  0  0  0  0  0  0  0  0  0  0
   15.1700   25.0100   20.9300 C   0  0  0  0  0  0  0  0  0  0  0  0
   25.6200   16.3500   21.4000 C   0  0  0  0  0  0  0  0  0  0  0  0
   24.2300   15.6300   21.4300 C   0  0  0  0  0  0  0  0  0  0  0  0
   17.2000   26.2800   21.1900 O   0  0  0  0  0  0  0  0  0  0  0  0
   17.3100   26.1000   22.6300 C   0  0  0  0  0  0  0  0  0  0  0  0
   24.6400   14.3100   20.6700 C   0  0  0  0  0  0  0  0  0  0  0  0
   15.9800   25.6300   23.2700 C   0  0  0  0  0  0  0  0  0  0  0  0
   23.1700   16.2000   20.4000 C   0  0  0  0  0  0  0  0  0  0  0  0
   23.1900   17.7200   20.3900 C   0  0  0  0  0  0  0  0  0  0  0  0
   15.2900   24.5400   22.4100 C   0  0  0  0  0  0  0  0  0  0  0  0
   22.7900   18.4200   21.2900 O   0  0  0  0  0  0  0  0  0  0  0  0
   15.1100   26.7500   23.4100 O   0  0  0  0  0  0  0  0  0  0  0  0
  2  1  1  0
  3  1  1  0
  5  2  1  0
  6  3  1  0
  6  4  1  0
  7  5  1  0
  8  6  1  0
  9  7  1  0
 10  9  1  0
 11  8  1  0
 12 10  1  0
 12  2  1  0
 13 11  1  0
 14 13  1  0
 15 10  1  0
 16 13  1  0
 17 16  1  0
 18  9  1  0
 19 17  1  0
 20 15  1  0
 21 19  1  0
 22 21  1  0
 23 15  1  0
 24 23  1  0
 25 22  1  0
 25 17  1  0
 26 24  1  0
 27 22  1  0
 27 16  1  0
 28 27  1  0
 28 11  1  0
 29 20  1  0
 29 26  1  0
 29 18  1  0
 30 28  1  0
 31 26  1  0
M  END
$$$$
