ligand-16
     RDKit          3D

 35 39  0  0  0  0  0  0  0  0999 V2000
   26.5700   17.1800   18.1200 S   0  0  0  0  0  0  0  0  0  0  0  0
   21.6900   21.0600   19.1500 O   0  0  0  0  0  0  0  0  0  0  0  0
   22.5100   19.6300   22.4000 O   0  0  0  0  0  0  0  0  0  0  0  0
   13.4800   25.4400   23.6200 O   0  0  0  0  0  0  0  0  0  0  0  0
   16.0200   26.9800   21.5000 O   0  0  0  0  0  0  0  0  0  0  0  0
   23.0600   21.5600   20.8100 N   0  0  0  0  0  0  0  0  0  0  0  0
   21.2800   22.8700   20.3800 N   0  0  0  0  0  0  0  0  0  0  0  0
   16.2100   24.4900   23.7300 N   0  0  0  0  0  0  0  0  0  0  0  0
   23.6300   18.0700   21.3500 N   0  0  0  0  0  0  0  0  0  0  0  0
   25.7300   18.6500   17.5200 C   0  0  0  0  0  0  0  0  0  0  0  0
   14.8700   26.2000   21.8400 C   0  0  0  0  0  0  0  0  0  0  0  0
   23.9100   20.4000   20.6500 C   0  0  0  0  0  0  0  0  0  0  0  0
   20.0500   23.2900   19.7400 C   0  0  0  0  0  0  0  0  0  0  0  0
   23.0900   16.9600   22.1400 C   0  0  0  0  0  0  0  0  0  0  0  0
   23.8900   15.7200   21.6900 C   0  0  0  0  0  0  0  0  0  0  0  0
   28.6800   18.0200   21.4000 C   0  0  0  0  0  0  0  0  0  0  0  0
   27.6800   18.1700   22.3300 C   0  0  0  0  0  0  0  0  0  0  0  0
   28.3400   17.7200   20.1100 C   0  0  0  0  0  0  0  0  0  0  0  0
   24.2200   16.0700   20.2300 C   0  0  0  0  0  0  0  0  0  0  0  0
   26.3600   18.0000   21.9900 C   0  0  0  0  0  0  0  0  0  0  0  0
   17.5900   22.9300   22.5600 C   0  0  0  0  0  0  0  0  0  0  0  0
   18.5100   22.6300   21.5900 C   0  0  0  0  0  0  0  0  0  0  0  0
   16.9600   26.8100   23.7000 C   0  0  0  0  0  0  0  0  0  0  0  0
   18.6100   24.9200   21.0000 C   0  0  0  0  0  0  0  0  0  0  0  0
   21.9800   21.7900   20.0600 C   0  0  0  0  0  0  0  0  0  0  0  0
   23.2900   19.3400   21.5400 C   0  0  0  0  0  0  0  0  0  0  0  0
   27.0000   17.5600   19.7700 C   0  0  0  0  0  0  0  0  0  0  0  0
   14.5800   26.2800   23.3300 C   0  0  0  0  0  0  0  0  0  0  0  0
   17.2300   26.6600   22.2000 C   0  0  0  0  0  0  0  0  0  0  0  0
   15.8200   25.8500   24.0900 C   0  0  0  0  0  0  0  0  0  0  0  0
   17.1700   24.2200   22.7500 C   0  0  0  0  0  0  0  0  0  0  0  0
   24.5500   17.5500   20.3300 C   0  0  0  0  0  0  0  0  0  0  0  0
   19.0300   23.6300   20.8000 C   0  0  0  0  0  0  0  0  0  0  0  0
   26.0000   17.7200   20.7100 C   0  0  0  0  0  0  0  0  0  0  0  0
   17.6700   25.2300   21.9600 C   0  0  0  0  0  0  0  0  0  0  0  0
 10  1  1  0
 11  5  1  0
 12  6  1  0
 13  7  1  0
 14  9  1  0
 15 14  1  0
 17 16  1  0
 18 16  1  0
 19 15  1  0
 20 17  1  0
 22 21  1  0
 25  2  1  0
 25  7  1  0
 25  6  1  0
 26 12  1  0
 26  9  1  0
 26  3  1  0
 27  1  1  0
 27 18  1  0
 28 11  1  0
 28  4  1  0
 29  5  1  0
 29 23  1  0
 30 28  1  0
 30  8  1  0
 30 23  1  0
 31  8  1  0
 31 21  1  0
 32 19  1  0
 32  9  1  0
 33 24  1  0
 33 22  1  0
 33 13  1  0
 34 32  1  0
 34 27  1  0
 34 20  1  0
 35 24  1  0
 35 31  1  0
 35 29  1  0
M  END
$$$$
