ligand-2
     RDKit          3D

 54 56  0  0  0  0  0  0  0  0999 V2000
   23.2500   18.5300   16.7800 C   0  0  0  0  0  0  0  0  0  0  0  0
   23.9800   17.0400   17.3000 S   0  0  0  0  0  0  0  0  0  0  0  0
   24.3700   17.5600   18.9400 C   0  0  0  0  0  0  0  0  0  0  0  0
   25.7100   17.7800   19.3100 C   0  0  0  0  0  0  0  0  0  0  0  0
   26.0300   18.1800   20.6000 C   0  0  0  0  0  0  0  0  0  0  0  0
   25.0100   18.3300   21.5400 C   0  0  0  0  0  0  0  0  0  0  0  0
   23.6900   18.1200   21.1700 C   0  0  0  0  0  0  0  0  0  0  0  0
   23.3200   17.7600   19.8900 C   0  0  0  0  0  0  0  0  0  0  0  0
   21.8400   17.5000   19.5400 C   0  0  0  0  0  0  0  0  0  0  0  0
   21.5700   15.9900   19.4800 C   0  0  0  0  0  0  0  0  0  0  0  0
   21.1700   15.7000   20.9200 C   0  0  0  0  0  0  0  0  0  0  0  0
   20.3100   16.9300   21.2900 C   0  0  0  0  0  0  0  0  0  0  0  0
   20.8800   18.0300   20.5100 N   0  0  0  0  0  0  0  0  0  0  0  0
   20.5300   19.3100   20.6800 C   0  0  0  0  0  0  0  0  0  0  0  0
   19.7000   19.5700   21.5500 O   0  0  0  0  0  0  0  0  0  0  0  0
   21.2100   20.3600   19.8100 C   0  0  0  0  0  0  0  0  0  0  0  0
   20.4800   21.5800   20.0100 N   0  0  0  0  0  0  0  0  0  0  0  0
   19.3600   21.8000   19.3000 C   0  0  0  0  0  0  0  0  0  0  0  0
   19.0100   21.0200   18.3900 O   0  0  0  0  0  0  0  0  0  0  0  0
   17.4500   23.3000   18.9500 C   0  0  0  0  0  0  0  0  0  0  0  0
   16.3600   23.6300   19.9700 C   0  0  0  0  0  0  0  0  0  0  0  0
   15.5900   24.7700   19.8200 C   0  0  0  0  0  0  0  0  0  0  0  0
   14.5400   25.0500   20.7000 C   0  0  0  0  0  0  0  0  0  0  0  0
   13.2300   24.4600   22.6500 N   0  0  0  0  0  0  0  0  0  0  0  0
   14.2900   24.2000   21.7600 C   0  0  0  0  0  0  0  0  0  0  0  0
   15.0600   23.0400   21.9200 C   0  0  0  0  0  0  0  0  0  0  0  0
   16.0900   22.7800   21.0300 C   0  0  0  0  0  0  0  0  0  0  0  0
   19.0000   23.6000   20.4400 H   0  0  0  0  0  0  0  0  0  0  0  0
   18.6600   23.0100   19.7000 N   0  0  0  0  0  0  0  0  0  0  0  0
   13.0500   23.8400   23.4200 H   0  0  0  0  0  0  0  0  0  0  0  0
   12.6500   25.2700   22.5200 H   0  0  0  0  0  0  0  0  0  0  0  0
   20.8000   22.2600   20.6700 H   0  0  0  0  0  0  0  0  0  0  0  0
   22.9500   18.4400   15.8300 H   0  0  0  0  0  0  0  0  0  0  0  0
   22.4700   18.7400   17.3700 H   0  0  0  0  0  0  0  0  0  0  0  0
   23.9200   19.2700   16.8500 H   0  0  0  0  0  0  0  0  0  0  0  0
   22.1600   20.4800   20.0800 H   0  0  0  0  0  0  0  0  0  0  0  0
   21.1700   20.0900   18.8400 H   0  0  0  0  0  0  0  0  0  0  0  0
   17.1400   22.5500   18.3700 H   0  0  0  0  0  0  0  0  0  0  0  0
   17.6300   24.1000   18.3900 H   0  0  0  0  0  0  0  0  0  0  0  0
   19.3500   16.7800   21.0400 H   0  0  0  0  0  0  0  0  0  0  0  0
   20.3800   17.1200   22.2700 H   0  0  0  0  0  0  0  0  0  0  0  0
   20.6300   14.8600   20.9800 H   0  0  0  0  0  0  0  0  0  0  0  0
   21.9700   15.6300   21.5100 H   0  0  0  0  0  0  0  0  0  0  0  0
   26.9800   18.3500   20.8600 H   0  0  0  0  0  0  0  0  0  0  0  0
   25.2300   18.6000   22.4800 H   0  0  0  0  0  0  0  0  0  0  0  0
   26.4300   17.6400   18.6400 H   0  0  0  0  0  0  0  0  0  0  0  0
   20.8300   15.7800   18.8400 H   0  0  0  0  0  0  0  0  0  0  0  0
   22.4000   15.4800   19.2200 H   0  0  0  0  0  0  0  0  0  0  0  0
   13.9800   25.8700   20.5600 H   0  0  0  0  0  0  0  0  0  0  0  0
   14.8800   22.4200   22.6800 H   0  0  0  0  0  0  0  0  0  0  0  0
   22.9700   18.2200   21.8700 H   0  0  0  0  0  0  0  0  0  0  0  0
   15.7800   25.4000   19.0600 H   0  0  0  0  0  0  0  0  0  0  0  0
   16.6400   21.9500   21.1500 H   0  0  0  0  0  0  0  0  0  0  0  0
   21.6500   17.9000   18.6400 H   0  0  0  0  0  0  0  0  0  0  0  0
  2  1  1  0
  3  2  1  0
  4  3  1  0
  5  4  1  0
  6  5  1  0
  7  6  1  0
  8  7  1  0
  8  3  1  0
  9  8  1  0
 10  9  1  0
 11 10  1  0
 12 11  1  0
 13 12  1  0
 13  9  1  0
 14 13  1  0
 15 14  1  0
 16 14  1  0
 17 16  1  0
 18 17  1  0
 19 18  1  0
 21 20  1  0
 22 21  1  0
 23 22  1  0
 25 23  1  0
 25 24  1  0
 26 25  1  0
 27 26  1  0
 27 21  1  0
 29 28  1  0
 29 20  1  0
 29 18  1  0
 30 24  1  0
 31 24  1  0
 32 17  1  0
 33  1  1  0
 34  1  1  0
 35  1  1  0
 36 16  1  0
 37 16  1  0
 38 20  1  0
 39 20  1  0
 40 12  1  0
 41 12  1  0
 42 11  1  0
 43 11  1  0
 44  5  1  0
 45  6  1  0
 46  4  1  0
 47 10  1  0
 48 10  1  0
 49 23  1  0
 50 26  1  0
 51  7  1  0
 52 22  1  0
 53 27  1  0
 54  9  1  0
M  END
$$$$
