ligand-3
     RDKit          3D

 15 17  0  0  0  0  0  0  0  0999 V2000
   18.2700   18.3400   12.5600 F   0  0  0  0  0  0  0  0  0  0  0  0
   13.9000   15.5200   18.8100 O   0  0  0  0  0  0  0  0  0  0  0  0
   14.3700   16.4200   15.8900 O   0  0  0  0  0  0  0  0  0  0  0  0
   17.3900   16.0700   17.5600 N   0  0  0  0  0  0  0  0  0  0  0  0
   14.5100   17.1700   17.1400 C   0  0  0  0  0  0  0  0  0  0  0  0
   18.9600   17.9900   14.8000 C   0  0  0  0  0  0  0  0  0  0  0  0
   18.7400   17.4300   16.0600 C   0  0  0  0  0  0  0  0  0  0  0  0
   16.9400   16.9700   13.9700 C   0  0  0  0  0  0  0  0  0  0  0  0
   15.7100   14.5400   16.5900 C   0  0  0  0  0  0  0  0  0  0  0  0
   18.0500   17.7800   13.7700 C   0  0  0  0  0  0  0  0  0  0  0  0
   15.0000   16.2900   18.3100 C   0  0  0  0  0  0  0  0  0  0  0  0
   15.4500   15.5500   15.4400 C   0  0  0  0  0  0  0  0  0  0  0  0
   16.1400   15.3300   17.8600 C   0  0  0  0  0  0  0  0  0  0  0  0
   17.6200   16.6200   16.2700 C   0  0  0  0  0  0  0  0  0  0  0  0
   16.7200   16.3800   15.2100 C   0  0  0  0  0  0  0  0  0  0  0  0
  5  3  1  0
  7  6  1  0
 10  8  1  0
 10  6  1  0
 10  1  1  0
 11  2  1  0
 11  5  1  0
 12  9  1  0
 12  3  1  0
 13 11  1  0
 13  9  1  0
 13  4  1  0
 14  4  1  0
 14  7  1  0
 15 12  1  0
 15 14  1  0
 15  8  1  0
M  END
$$$$
