ligand-7
     RDKit          3D

 28 30  0  0  0  0  0  0  0  0999 V2000
   15.0300   20.8600   14.1400 O   0  0  0  0  0  0  0  0  0  0  0  0
   13.8700   19.0000   14.4800 O   0  0  0  0  0  0  0  0  0  0  0  0
   16.5700   16.7500   13.8200 O   0  0  0  0  0  0  0  0  0  0  0  0
   14.8400   17.8800   17.8400 O   0  0  0  0  0  0  0  0  0  0  0  0
   15.7700   17.6200   15.7700 N   0  0  0  0  0  0  0  0  0  0  0  0
   15.9800   19.0400   15.4800 C   0  0  0  0  0  0  0  0  0  0  0  0
   18.2200   15.4900   16.5300 C   0  0  0  0  0  0  0  0  0  0  0  0
   17.6700   15.8100   17.9500 C   0  0  0  0  0  0  0  0  0  0  0  0
   16.6900   13.7700   17.2200 C   0  0  0  0  0  0  0  0  0  0  0  0
   14.8700   19.6300   14.6600 C   0  0  0  0  0  0  0  0  0  0  0  0
   16.1100   16.6300   14.9300 C   0  0  0  0  0  0  0  0  0  0  0  0
   15.2400   17.1800   16.9400 C   0  0  0  0  0  0  0  0  0  0  0  0
   17.1500   14.5200   15.9200 C   0  0  0  0  0  0  0  0  0  0  0  0
   16.2800   15.0900   17.9800 C   0  0  0  0  0  0  0  0  0  0  0  0
   15.8100   15.2900   15.5700 C   0  0  0  0  0  0  0  0  0  0  0  0
   15.2200   15.6600   16.9500 C   0  0  0  0  0  0  0  0  0  0  0  0
   16.8400   19.1400   14.9800 H   0  0  0  0  0  0  0  0  0  0  0  0
   16.0400   19.5400   16.3400 H   0  0  0  0  0  0  0  0  0  0  0  0
   19.1100   15.0500   16.5900 H   0  0  0  0  0  0  0  0  0  0  0  0
   18.3000   16.3200   15.9800 H   0  0  0  0  0  0  0  0  0  0  0  0
   17.5600   16.8000   18.0700 H   0  0  0  0  0  0  0  0  0  0  0  0
   18.2800   15.4500   18.6600 H   0  0  0  0  0  0  0  0  0  0  0  0
   17.4300   13.2800   17.6700 H   0  0  0  0  0  0  0  0  0  0  0  0
   15.9200   13.1500   17.0700 H   0  0  0  0  0  0  0  0  0  0  0  0
   17.4900   13.9200   15.2000 H   0  0  0  0  0  0  0  0  0  0  0  0
   15.9200   14.9300   18.9000 H   0  0  0  0  0  0  0  0  0  0  0  0
   15.1900   14.7300   15.0300 H   0  0  0  0  0  0  0  0  0  0  0  0
   14.3000   15.2900   17.0900 H   0  0  0  0  0  0  0  0  0  0  0  0
  6  5  1  0
  8  7  1  0
 10  6  1  0
 10  2  1  0
 10  1  1  0
 11  5  1  0
 11  3  1  0
 12  5  1  0
 12  4  1  0
 13  9  1  0
 13  7  1  0
 14  9  1  0
 14  8  1  0
 15 11  1  0
 15 13  1  0
 16 15  1  0
 16 14  1  0
 16 12  1  0
 17  6  1  0
 18  6  1  0
 19  7  1  0
 20  7  1  0
 21  8  1  0
 22  8  1  0
 23  9  1  0
 24  9  1  0
 25 13  1  0
 26 14  1  0
 27 15  1  0
 28 16  1  0
M  END
$$$$
