ligand-40
     RDKit          3D

 58 63  0  0  0  0  0  0  0  0999 V2000
   21.6200   19.5000   18.1700 O   0  0  0  0  0  0  0  0  0  0  0  0
   25.3400   18.7300   18.1000 O   0  0  0  0  0  0  0  0  0  0  0  0
   22.7100   18.4600   21.6300 O   0  0  0  0  0  0  0  0  0  0  0  0
   15.2200   26.6300   23.2700 O   0  0  0  0  0  0  0  0  0  0  0  0
   17.2700   26.0700   21.1700 O   0  0  0  0  0  0  0  0  0  0  0  0
   21.5200   21.4700   19.3200 N   0  0  0  0  0  0  0  0  0  0  0  0
   16.0900   23.1100   22.5400 N   0  0  0  0  0  0  0  0  0  0  0  0
   23.9400   18.8000   19.8100 N   0  0  0  0  0  0  0  0  0  0  0  0
   17.4200   25.8700   22.5900 C   0  0  0  0  0  0  0  0  0  0  0  0
   20.2200   21.8800   18.8400 C   0  0  0  0  0  0  0  0  0  0  0  0
   23.4800   20.1200   19.4800 C   0  0  0  0  0  0  0  0  0  0  0  0
   17.8600   21.6600   21.7500 C   0  0  0  0  0  0  0  0  0  0  0  0
   18.8800   21.3800   20.8700 C   0  0  0  0  0  0  0  0  0  0  0  0
   25.2600   14.4400   19.4300 C   0  0  0  0  0  0  0  0  0  0  0  0
   24.4400   14.2700   20.7900 C   0  0  0  0  0  0  0  0  0  0  0  0
   15.2100   24.8000   20.9700 C   0  0  0  0  0  0  0  0  0  0  0  0
   18.4300   23.4200   19.6700 C   0  0  0  0  0  0  0  0  0  0  0  0
   23.1700   15.6300   19.2600 C   0  0  0  0  0  0  0  0  0  0  0  0
   22.1100   20.3200   18.9500 C   0  0  0  0  0  0  0  0  0  0  0  0
   24.8800   18.2200   19.0800 C   0  0  0  0  0  0  0  0  0  0  0  0
   23.5500   18.0800   20.8600 C   0  0  0  0  0  0  0  0  0  0  0  0
   16.0700   25.4900   23.2300 C   0  0  0  0  0  0  0  0  0  0  0  0
   16.6400   25.0100   20.3900 C   0  0  0  0  0  0  0  0  0  0  0  0
   15.3500   24.3900   22.4500 C   0  0  0  0  0  0  0  0  0  0  0  0
   17.1400   22.8500   21.6300 C   0  0  0  0  0  0  0  0  0  0  0  0
   19.1500   22.2500   19.8300 C   0  0  0  0  0  0  0  0  0  0  0  0
   24.6500   15.7100   18.7600 C   0  0  0  0  0  0  0  0  0  0  0  0
   23.4500   15.4900   20.7700 C   0  0  0  0  0  0  0  0  0  0  0  0
   17.4100   23.7100   20.5500 C   0  0  0  0  0  0  0  0  0  0  0  0
   25.1700   16.8600   19.6600 C   0  0  0  0  0  0  0  0  0  0  0  0
   24.3000   16.7700   20.9700 C   0  0  0  0  0  0  0  0  0  0  0  0
   15.4400   27.2300   22.5000 H   0  0  0  0  0  0  0  0  0  0  0  0
   22.0000   22.0700   19.9600 H   0  0  0  0  0  0  0  0  0  0  0  0
   15.8600   22.4400   23.2500 H   0  0  0  0  0  0  0  0  0  0  0  0
   17.7600   26.7100   23.0100 H   0  0  0  0  0  0  0  0  0  0  0  0
   18.0800   25.1300   22.7500 H   0  0  0  0  0  0  0  0  0  0  0  0
   19.8500   21.1200   18.2900 H   0  0  0  0  0  0  0  0  0  0  0  0
   20.3600   22.6700   18.2500 H   0  0  0  0  0  0  0  0  0  0  0  0
   24.1100   20.4800   18.7900 H   0  0  0  0  0  0  0  0  0  0  0  0
   23.5500   20.6700   20.3100 H   0  0  0  0  0  0  0  0  0  0  0  0
   17.6300   21.0200   22.4700 H   0  0  0  0  0  0  0  0  0  0  0  0
   19.4300   20.5500   20.9800 H   0  0  0  0  0  0  0  0  0  0  0  0
   25.1400   13.6400   18.8400 H   0  0  0  0  0  0  0  0  0  0  0  0
   26.2300   14.5600   19.6100 H   0  0  0  0  0  0  0  0  0  0  0  0
   25.0500   14.3200   21.5800 H   0  0  0  0  0  0  0  0  0  0  0  0
   23.9400   13.4100   20.8000 H   0  0  0  0  0  0  0  0  0  0  0  0
   14.7400   24.0800   20.4600 H   0  0  0  0  0  0  0  0  0  0  0  0
   14.6900   25.6500   20.9000 H   0  0  0  0  0  0  0  0  0  0  0  0
   18.6500   24.0400   18.9200 H   0  0  0  0  0  0  0  0  0  0  0  0
   22.6900   14.8300   18.8900 H   0  0  0  0  0  0  0  0  0  0  0  0
   22.6500   16.4600   19.0400 H   0  0  0  0  0  0  0  0  0  0  0  0
   16.2300   25.1700   24.1600 H   0  0  0  0  0  0  0  0  0  0  0  0
   16.5900   25.2700   19.4200 H   0  0  0  0  0  0  0  0  0  0  0  0
   14.4300   24.2600   22.8400 H   0  0  0  0  0  0  0  0  0  0  0  0
   24.7900   15.8100   17.7800 H   0  0  0  0  0  0  0  0  0  0  0  0
   22.6500   15.4100   21.3600 H   0  0  0  0  0  0  0  0  0  0  0  0
   26.1500   16.7500   19.8600 H   0  0  0  0  0  0  0  0  0  0  0  0
   24.8600   16.7200   21.8000 H   0  0  0  0  0  0  0  0  0  0  0  0
  9  5  1  0
 10  6  1  0
 11  8  1  0
 13 12  1  0
 15 14  1  0
 19  6  1  0
 19  1  1  0
 19 11  1  0
 20  8  1  0
 20  2  1  0
 21  8  1  0
 21  3  1  0
 22  4  1  0
 22  9  1  0
 23 16  1  0
 23  5  1  0
 24 16  1  0
 24 22  1  0
 24  7  1  0
 25  7  1  0
 25 12  1  0
 26 13  1  0
 26 17  1  0
 26 10  1  0
 27 18  1  0
 27 14  1  0
 28 18  1  0
 28 15  1  0
 29 25  1  0
 29 23  1  0
 29 17  1  0
 30 27  1  0
 30 20  1  0
 31 28  1  0
 31 30  1  0
 31 21  1  0
 32  4  1  0
 33  6  1  0
 34  7  1  0
 35  9  1  0
 36  9  1  0
 37 10  1  0
 38 10  1  0
 39 11  1  0
 40 11  1  0
 41 12  1  0
 42 13  1  0
 43 14  1  0
 44 14  1  0
 45 15  1  0
 46 15  1  0
 47 16  1  0
 48 16  1  0
 49 17  1  0
 50 18  1  0
 51 18  1  0
 52 22  1  0
 53 23  1  0
 54 24  1  0
 55 27  1  0
 56 28  1  0
 57 30  1  0
 58 31  1  0
M  END
$$$$
