ligand-4
     RDKit          3D

 18 20  0  0  0  0  0  0  0  0999 V2000
   15.4900   19.9400   18.3900 O   0  0  0  0  0  0  0  0  0  0  0  0
   19.1600   13.2800   16.6900 O   0  0  0  0  0  0  0  0  0  0  0  0
   19.2500   14.2400   14.6200 O   0  0  0  0  0  0  0  0  0  0  0  0
   15.7000   16.3500   18.3200 N   0  0  0  0  0  0  0  0  0  0  0  0
   15.9800   18.7500   16.5800 N   0  0  0  0  0  0  0  0  0  0  0  0
   18.3100   18.9400   17.3900 C   0  0  0  0  0  0  0  0  0  0  0  0
   19.6600   13.0800   15.3700 C   0  0  0  0  0  0  0  0  0  0  0  0
   14.2800   16.6700   18.1500 C   0  0  0  0  0  0  0  0  0  0  0  0
   17.2500   19.4900   16.4200 C   0  0  0  0  0  0  0  0  0  0  0  0
   15.7300   17.6300   15.6500 C   0  0  0  0  0  0  0  0  0  0  0  0
   14.0000   18.1800   18.0100 C   0  0  0  0  0  0  0  0  0  0  0  0
   17.3800   14.7900   17.5800 C   0  0  0  0  0  0  0  0  0  0  0  0
   17.4800   15.9500   15.0700 C   0  0  0  0  0  0  0  0  0  0  0  0
   15.2100   19.0000   17.6600 C   0  0  0  0  0  0  0  0  0  0  0  0
   18.2600   14.3000   16.6300 C   0  0  0  0  0  0  0  0  0  0  0  0
   18.3100   14.8800   15.3700 C   0  0  0  0  0  0  0  0  0  0  0  0
   16.5400   15.8600   17.2900 C   0  0  0  0  0  0  0  0  0  0  0  0
   16.5800   16.4400   16.0200 C   0  0  0  0  0  0  0  0  0  0  0  0
  7  3  1  0
  7  2  1  0
  8  4  1  0
  9  5  1  0
  9  6  1  0
 10  5  1  0
 11  8  1  0
 14 11  1  0
 14  5  1  0
 14  1  1  0
 15 12  1  0
 15  2  1  0
 16 13  1  0
 16  3  1  0
 16 15  1  0
 17  4  1  0
 17 12  1  0
 18 10  1  0
 18 13  1  0
 18 17  1  0
M  END
$$$$
