ligand-27
     RDKit          3D

 54 57  0  0  0  0  0  0  0  0999 V2000
   19.2900   19.2400   20.2300 C   0  0  0  0  0  0  0  0  0  0  0  0
   22.5500   23.3200   19.9200 O   0  0  0  0  0  0  0  0  0  0  0  0
   22.8600   22.8000   18.8500 C   0  0  0  0  0  0  0  0  0  0  0  0
   20.2000   19.4500   21.2600 C   0  0  0  0  0  0  0  0  0  0  0  0
   19.9800   18.8900   22.5200 C   0  0  0  0  0  0  0  0  0  0  0  0
   24.1000   22.9300   18.3500 N   0  0  0  0  0  0  0  0  0  0  0  0
   25.1200   23.7100   19.0400 C   0  0  0  0  0  0  0  0  0  0  0  0
   18.8600   18.0800   22.7300 C   0  0  0  0  0  0  0  0  0  0  0  0
   26.4400   23.4100   18.3100 C   0  0  0  0  0  0  0  0  0  0  0  0
   17.9600   17.8400   21.6700 C   0  0  0  0  0  0  0  0  0  0  0  0
   26.8900   24.7600   17.7200 C   0  0  0  0  0  0  0  0  0  0  0  0
   18.1800   18.4300   20.4300 C   0  0  0  0  0  0  0  0  0  0  0  0
   25.6100   25.6100   17.6000 C   0  0  0  0  0  0  0  0  0  0  0  0
   16.6900   17.0100   21.9000 C   0  0  0  0  0  0  0  0  0  0  0  0
   24.8600   25.2200   18.8800 C   0  0  0  0  0  0  0  0  0  0  0  0
   21.8600   22.0000   18.0800 C   0  0  0  0  0  0  0  0  0  0  0  0
   18.6300   17.5300   24.0200 N   0  0  0  0  0  0  0  0  0  0  0  0
   16.9500   16.0000   23.0500 C   0  0  0  0  0  0  0  0  0  0  0  0
   22.1700   21.4300   17.0400 O   0  0  0  0  0  0  0  0  0  0  0  0
   20.6200   21.9400   18.5900 N   0  0  0  0  0  0  0  0  0  0  0  0
   19.5400   21.1900   17.9500 C   0  0  0  0  0  0  0  0  0  0  0  0
   15.6100   17.8800   22.3500 O   0  0  0  0  0  0  0  0  0  0  0  0
   15.7500   18.6300   23.6000 C   0  0  0  0  0  0  0  0  0  0  0  0
   18.9900   20.1700   18.9200 C   0  0  0  0  0  0  0  0  0  0  0  0
   16.2400   17.7500   24.7700 C   0  0  0  0  0  0  0  0  0  0  0  0
   17.3800   16.7900   24.3200 C   0  0  0  0  0  0  0  0  0  0  0  0
   14.9200   17.2800   26.1600 H   0  0  0  0  0  0  0  0  0  0  0  0
   15.1400   16.9800   25.2700 O   0  0  0  0  0  0  0  0  0  0  0  0
   24.3200   22.4900   17.4800 H   0  0  0  0  0  0  0  0  0  0  0  0
   25.1800   23.4600   20.0000 H   0  0  0  0  0  0  0  0  0  0  0  0
   27.1200   23.0700   18.9600 H   0  0  0  0  0  0  0  0  0  0  0  0
   26.3000   22.7400   17.5900 H   0  0  0  0  0  0  0  0  0  0  0  0
   27.5500   25.2000   18.3300 H   0  0  0  0  0  0  0  0  0  0  0  0
   27.3000   24.6200   16.8200 H   0  0  0  0  0  0  0  0  0  0  0  0
   25.0800   25.3700   16.7800 H   0  0  0  0  0  0  0  0  0  0  0  0
   25.8200   26.5900   17.5800 H   0  0  0  0  0  0  0  0  0  0  0  0
   23.8800   25.4000   18.7900 H   0  0  0  0  0  0  0  0  0  0  0  0
   25.2100   25.7300   19.6600 H   0  0  0  0  0  0  0  0  0  0  0  0
   20.4200   22.4400   19.4400 H   0  0  0  0  0  0  0  0  0  0  0  0
   19.9000   20.7100   17.1500 H   0  0  0  0  0  0  0  0  0  0  0  0
   18.8200   21.8100   17.6800 H   0  0  0  0  0  0  0  0  0  0  0  0
   18.7000   19.4600   18.2800 H   0  0  0  0  0  0  0  0  0  0  0  0
   18.1900   20.6700   19.2500 H   0  0  0  0  0  0  0  0  0  0  0  0
   17.5400   18.2700   19.6800 H   0  0  0  0  0  0  0  0  0  0  0  0
   19.3200   17.6500   24.7300 H   0  0  0  0  0  0  0  0  0  0  0  0
   17.5600   16.1400   25.0600 H   0  0  0  0  0  0  0  0  0  0  0  0
   16.5800   18.3400   25.4900 H   0  0  0  0  0  0  0  0  0  0  0  0
   14.8600   19.0100   23.8400 H   0  0  0  0  0  0  0  0  0  0  0  0
   16.4000   19.3700   23.4600 H   0  0  0  0  0  0  0  0  0  0  0  0
   16.4300   16.5300   21.0600 H   0  0  0  0  0  0  0  0  0  0  0  0
   17.6800   15.3700   22.7800 H   0  0  0  0  0  0  0  0  0  0  0  0
   16.1100   15.4800   23.2300 H   0  0  0  0  0  0  0  0  0  0  0  0
   20.6200   19.0600   23.2700 H   0  0  0  0  0  0  0  0  0  0  0  0
   21.0200   20.0100   21.1000 H   0  0  0  0  0  0  0  0  0  0  0  0
  3  2  1  0
  4  1  1  0
  5  4  1  0
  6  3  1  0
  7  6  1  0
  8  5  1  0
  9  7  1  0
 10  8  1  0
 11  9  1  0
 12 10  1  0
 12  1  1  0
 13 11  1  0
 14 10  1  0
 15 13  1  0
 15  7  1  0
 16  3  1  0
 17  8  1  0
 18 14  1  0
 19 16  1  0
 20 16  1  0
 21 20  1  0
 22 14  1  0
 23 22  1  0
 24 21  1  0
 24  1  1  0
 25 23  1  0
 26 25  1  0
 26 18  1  0
 26 17  1  0
 28 27  1  0
 28 25  1  0
 29  6  1  0
 30  7  1  0
 31  9  1  0
 32  9  1  0
 33 11  1  0
 34 11  1  0
 35 13  1  0
 36 13  1  0
 37 15  1  0
 38 15  1  0
 39 20  1  0
 40 21  1  0
 41 21  1  0
 42 24  1  0
 43 24  1  0
 44 12  1  0
 45 17  1  0
 46 26  1  0
 47 25  1  0
 48 23  1  0
 49 23  1  0
 50 14  1  0
 51 18  1  0
 52 18  1  0
 53  5  1  0
 54  4  1  0
M  END
$$$$
