ligand-8
     RDKit          3D

 35 36  0  0  0  0  0  0  0  0999 V2000
   18.3400   17.7800   16.8300 O   0  0  0  0  0  0  0  0  0  0  0  0
   18.7200   19.6700   19.7100 O   0  0  0  0  0  0  0  0  0  0  0  0
   13.9200   16.0600   18.5200 N   0  0  0  0  0  0  0  0  0  0  0  0
   16.7900   18.2900   18.3800 N   0  0  0  0  0  0  0  0  0  0  0  0
   20.2700   19.2800   18.1400 N   0  0  0  0  0  0  0  0  0  0  0  0
   13.3800   15.1400   19.3200 C   0  0  0  0  0  0  0  0  0  0  0  0
   15.7100   17.5400   17.7400 C   0  0  0  0  0  0  0  0  0  0  0  0
   14.0900   14.6600   20.4300 C   0  0  0  0  0  0  0  0  0  0  0  0
   15.3800   15.1300   20.6600 C   0  0  0  0  0  0  0  0  0  0  0  0
   23.0600   21.1100   17.5100 C   0  0  0  0  0  0  0  0  0  0  0  0
   21.7800   21.9600   17.3900 C   0  0  0  0  0  0  0  0  0  0  0  0
   15.9300   16.0700   19.7800 C   0  0  0  0  0  0  0  0  0  0  0  0
   22.6100   19.7600   18.1000 C   0  0  0  0  0  0  0  0  0  0  0  0
   21.0300   21.5700   18.6700 C   0  0  0  0  0  0  0  0  0  0  0  0
   18.0300   18.3500   17.8700 C   0  0  0  0  0  0  0  0  0  0  0  0
   19.0300   19.1500   18.6400 C   0  0  0  0  0  0  0  0  0  0  0  0
   15.1600   16.5200   18.7100 C   0  0  0  0  0  0  0  0  0  0  0  0
   21.2900   20.0600   18.8300 C   0  0  0  0  0  0  0  0  0  0  0  0
   16.5900   18.7900   19.2300 H   0  0  0  0  0  0  0  0  0  0  0  0
   20.4900   18.8400   17.2700 H   0  0  0  0  0  0  0  0  0  0  0  0
   12.4600   14.8000   19.1300 H   0  0  0  0  0  0  0  0  0  0  0  0
   16.0700   17.0600   16.9400 H   0  0  0  0  0  0  0  0  0  0  0  0
   14.9900   18.1600   17.4700 H   0  0  0  0  0  0  0  0  0  0  0  0
   13.6700   13.9900   21.0400 H   0  0  0  0  0  0  0  0  0  0  0  0
   15.9100   14.7900   21.4400 H   0  0  0  0  0  0  0  0  0  0  0  0
   23.7200   21.5500   18.1200 H   0  0  0  0  0  0  0  0  0  0  0  0
   23.4700   20.9700   16.6100 H   0  0  0  0  0  0  0  0  0  0  0  0
   21.2500   21.7200   16.5700 H   0  0  0  0  0  0  0  0  0  0  0  0
   21.9900   22.9400   17.3700 H   0  0  0  0  0  0  0  0  0  0  0  0
   16.8600   16.4100   19.9200 H   0  0  0  0  0  0  0  0  0  0  0  0
   23.2900   19.4200   18.7500 H   0  0  0  0  0  0  0  0  0  0  0  0
   22.4700   19.0900   17.3800 H   0  0  0  0  0  0  0  0  0  0  0  0
   20.0500   21.7500   18.5800 H   0  0  0  0  0  0  0  0  0  0  0  0
   21.3800   22.0800   19.4500 H   0  0  0  0  0  0  0  0  0  0  0  0
   21.3500   19.8100   19.7900 H   0  0  0  0  0  0  0  0  0  0  0  0
  6  3  1  0
  7  4  1  0
  8  6  1  0
  9  8  1  0
 11 10  1  0
 12  9  1  0
 13 10  1  0
 14 11  1  0
 15  4  1  0
 15  1  1  0
 16 15  1  0
 16  5  1  0
 16  2  1  0
 17 12  1  0
 17  3  1  0
 17  7  1  0
 18 14  1  0
 18  5  1  0
 18 13  1  0
 19  4  1  0
 20  5  1  0
 21  6  1  0
 22  7  1  0
 23  7  1  0
 24  8  1  0
 25  9  1  0
 26 10  1  0
 27 10  1  0
 28 11  1  0
 29 11  1  0
 30 12  1  0
 31 13  1  0
 32 13  1  0
 33 14  1  0
 34 14  1  0
 35 18  1  0
M  END
$$$$
