ligand-14
     RDKit          3D

 67 71  0  0  0  0  0  0  0  0999 V2000
   25.9100   18.5000   17.6400 C   0  0  0  0  0  0  0  0  0  0  0  0
   26.6400   17.0100   18.1600 S   0  0  0  0  0  0  0  0  0  0  0  0
   27.0300   17.5300   19.8000 C   0  0  0  0  0  0  0  0  0  0  0  0
   28.3700   17.7500   20.1700 C   0  0  0  0  0  0  0  0  0  0  0  0
   28.6900   18.1500   21.4600 C   0  0  0  0  0  0  0  0  0  0  0  0
   27.6700   18.3000   22.4000 C   0  0  0  0  0  0  0  0  0  0  0  0
   26.3500   18.0900   22.0300 C   0  0  0  0  0  0  0  0  0  0  0  0
   25.9800   17.7300   20.7500 C   0  0  0  0  0  0  0  0  0  0  0  0
   24.5000   17.4700   20.4000 C   0  0  0  0  0  0  0  0  0  0  0  0
   24.2300   15.9600   20.3400 C   0  0  0  0  0  0  0  0  0  0  0  0
   23.8300   15.6700   21.7800 C   0  0  0  0  0  0  0  0  0  0  0  0
   22.9700   16.9000   22.1500 C   0  0  0  0  0  0  0  0  0  0  0  0
   23.5400   18.0000   21.3700 N   0  0  0  0  0  0  0  0  0  0  0  0
   23.1900   19.2800   21.5400 C   0  0  0  0  0  0  0  0  0  0  0  0
   22.3600   19.5400   22.4100 O   0  0  0  0  0  0  0  0  0  0  0  0
   23.8700   20.3300   20.6700 C   0  0  0  0  0  0  0  0  0  0  0  0
   23.1400   21.5500   20.8700 N   0  0  0  0  0  0  0  0  0  0  0  0
   22.0200   21.7700   20.1600 C   0  0  0  0  0  0  0  0  0  0  0  0
   21.6700   20.9900   19.2500 O   0  0  0  0  0  0  0  0  0  0  0  0
   20.1100   23.2700   19.8100 C   0  0  0  0  0  0  0  0  0  0  0  0
   19.0200   23.6000   20.8300 C   0  0  0  0  0  0  0  0  0  0  0  0
   18.2500   24.7400   20.6800 C   0  0  0  0  0  0  0  0  0  0  0  0
   17.2000   25.0200   21.5600 C   0  0  0  0  0  0  0  0  0  0  0  0
   16.4000   26.3100   21.3900 C   0  0  0  0  0  0  0  0  0  0  0  0
   15.0000   26.1100   21.9700 C   0  0  0  0  0  0  0  0  0  0  0  0
   15.1200   25.6900   23.4400 C   0  0  0  0  0  0  0  0  0  0  0  0
   15.8900   24.4300   23.5100 N   0  0  0  0  0  0  0  0  0  0  0  0
   16.9500   24.1700   22.6200 C   0  0  0  0  0  0  0  0  0  0  0  0
   17.7200   23.0100   22.7800 C   0  0  0  0  0  0  0  0  0  0  0  0
   18.7500   22.7500   21.8900 C   0  0  0  0  0  0  0  0  0  0  0  0
   15.8400   26.7900   24.2400 C   0  0  0  0  0  0  0  0  0  0  0  0
   14.9700   27.9400   24.3300 O   0  0  0  0  0  0  0  0  0  0  0  0
   17.1500   27.1900   23.5700 C   0  0  0  0  0  0  0  0  0  0  0  0
   16.9800   27.4000   22.1600 O   0  0  0  0  0  0  0  0  0  0  0  0
   21.6600   23.5700   21.3000 H   0  0  0  0  0  0  0  0  0  0  0  0
   21.3200   22.9800   20.5600 N   0  0  0  0  0  0  0  0  0  0  0  0
   14.1100   27.6700   24.7600 H   0  0  0  0  0  0  0  0  0  0  0  0
   23.4600   22.2300   21.5300 H   0  0  0  0  0  0  0  0  0  0  0  0
   15.6500   23.7500   24.2100 H   0  0  0  0  0  0  0  0  0  0  0  0
   25.6100   18.4100   16.6900 H   0  0  0  0  0  0  0  0  0  0  0  0
   25.1300   18.7100   18.2300 H   0  0  0  0  0  0  0  0  0  0  0  0
   26.5800   19.2400   17.7100 H   0  0  0  0  0  0  0  0  0  0  0  0
   17.4900   28.0400   23.9800 H   0  0  0  0  0  0  0  0  0  0  0  0
   17.8300   26.4600   23.7100 H   0  0  0  0  0  0  0  0  0  0  0  0
   24.8200   20.4500   20.9400 H   0  0  0  0  0  0  0  0  0  0  0  0
   23.8300   20.0600   19.7000 H   0  0  0  0  0  0  0  0  0  0  0  0
   19.8000   22.5200   19.2300 H   0  0  0  0  0  0  0  0  0  0  0  0
   20.2900   24.0700   19.2500 H   0  0  0  0  0  0  0  0  0  0  0  0
   22.0100   16.7500   21.9000 H   0  0  0  0  0  0  0  0  0  0  0  0
   23.0400   17.0900   23.1300 H   0  0  0  0  0  0  0  0  0  0  0  0
   23.2900   14.8300   21.8400 H   0  0  0  0  0  0  0  0  0  0  0  0
   24.6300   15.6000   22.3700 H   0  0  0  0  0  0  0  0  0  0  0  0
   29.6400   18.3200   21.7200 H   0  0  0  0  0  0  0  0  0  0  0  0
   27.8900   18.5700   23.3400 H   0  0  0  0  0  0  0  0  0  0  0  0
   29.0900   17.6100   19.5000 H   0  0  0  0  0  0  0  0  0  0  0  0
   23.4900   15.7500   19.7000 H   0  0  0  0  0  0  0  0  0  0  0  0
   25.0600   15.4500   20.0800 H   0  0  0  0  0  0  0  0  0  0  0  0
   25.6300   18.1900   22.7300 H   0  0  0  0  0  0  0  0  0  0  0  0
   17.5400   22.3900   23.5400 H   0  0  0  0  0  0  0  0  0  0  0  0
   19.3000   21.9200   22.0100 H   0  0  0  0  0  0  0  0  0  0  0  0
   14.5200   25.3900   21.4600 H   0  0  0  0  0  0  0  0  0  0  0  0
   14.4800   26.9600   21.9000 H   0  0  0  0  0  0  0  0  0  0  0  0
   18.4400   25.3700   19.9200 H   0  0  0  0  0  0  0  0  0  0  0  0
   16.0300   26.4500   25.1600 H   0  0  0  0  0  0  0  0  0  0  0  0
   16.3500   26.5600   20.4200 H   0  0  0  0  0  0  0  0  0  0  0  0
   14.2100   25.5500   23.8200 H   0  0  0  0  0  0  0  0  0  0  0  0
   24.3100   17.8700   19.5000 H   0  0  0  0  0  0  0  0  0  0  0  0
  2  1  1  0
  3  2  1  0
  4  3  1  0
  5  4  1  0
  6  5  1  0
  7  6  1  0
  8  3  1  0
  8  7  1  0
  9  8  1  0
 10  9  1  0
 11 10  1  0
 12 11  1  0
 13  9  1  0
 13 12  1  0
 14 13  1  0
 15 14  1  0
 16 14  1  0
 17 16  1  0
 18 17  1  0
 19 18  1  0
 21 20  1  0
 22 21  1  0
 23 22  1  0
 24 23  1  0
 25 24  1  0
 26 25  1  0
 27 26  1  0
 28 27  1  0
 28 23  1  0
 29 28  1  0
 30 21  1  0
 30 29  1  0
 31 26  1  0
 32 31  1  0
 33 31  1  0
 34 24  1  0
 34 33  1  0
 36 35  1  0
 36 20  1  0
 36 18  1  0
 37 32  1  0
 38 17  1  0
 39 27  1  0
 40  1  1  0
 41  1  1  0
 42  1  1  0
 43 33  1  0
 44 33  1  0
 45 16  1  0
 46 16  1  0
 47 20  1  0
 48 20  1  0
 49 12  1  0
 50 12  1  0
 51 11  1  0
 52 11  1  0
 53  5  1  0
 54  6  1  0
 55  4  1  0
 56 10  1  0
 57 10  1  0
 58  7  1  0
 59 29  1  0
 60 30  1  0
 61 25  1  0
 62 25  1  0
 63 22  1  0
 64 31  1  0
 65 24  1  0
 66 26  1  0
 67  9  1  0
M  END
$$$$
