ligand-8
  PyMOL2.5          3D                             0

 35 36  0  0  0  0  0  0  0  0999 V2000
   41.7634   41.9066   31.0487 O   0  0  0  0  0  0  0  0  0  0  0  0
   42.1747   41.5320   34.5871 O   0  0  0  0  0  0  0  0  0  0  0  0
   39.6483   46.5224   31.7301 N   0  0  0  0  0  0  0  0  0  0  0  0
   41.6919   43.5508   32.6428 N   0  0  0  0  0  0  0  0  0  0  0  0
   42.4348   39.8981   32.9998 N   0  0  0  0  0  0  0  0  0  0  0  0
   38.5165   47.1505   32.1048 C   0  0  0  0  0  0  0  0  0  0  0  0
   41.2283   44.6588   31.7759 C   0  0  0  0  0  0  0  0  0  0  0  0
   37.6010   46.5819   33.0058 C   0  0  0  0  0  0  0  0  0  0  0  0
   37.8627   45.3125   33.5442 C   0  0  0  0  0  0  0  0  0  0  0  0
   44.3518   36.9043   33.4766 C   0  0  0  0  0  0  0  0  0  0  0  0
   45.1632   38.0912   34.0176 C   0  0  0  0  0  0  0  0  0  0  0  0
   39.0341   44.6633   33.1336 C   0  0  0  0  0  0  0  0  0  0  0  0
   42.9840   37.4946   33.0782 C   0  0  0  0  0  0  0  0  0  0  0  0
   44.1341   39.0279   34.6475 C   0  0  0  0  0  0  0  0  0  0  0  0
   41.8805   42.2403   32.2219 C   0  0  0  0  0  0  0  0  0  0  0  0
   42.1967   41.2015   33.4066 C   0  0  0  0  0  0  0  0  0  0  0  0
   39.9173   45.3035   32.2385 C   0  0  0  0  0  0  0  0  0  0  0  0
   42.7954   38.7947   33.8926 C   0  0  0  0  0  0  0  0  0  0  0  0
   41.8611   43.7266   33.6291 H   0  0  0  0  0  0  0  0  0  0  0  0
   42.2545   39.6824   32.0303 H   0  0  0  0  0  0  0  0  0  0  0  0
   38.3466   48.1318   31.6808 H   0  0  0  0  0  0  0  0  0  0  0  0
   41.1046   44.3116   30.7455 H   0  0  0  0  0  0  0  0  0  0  0  0
   42.0019   45.4313   31.7688 H   0  0  0  0  0  0  0  0  0  0  0  0
   36.7030   47.1205   33.2870 H   0  0  0  0  0  0  0  0  0  0  0  0
   37.1740   44.8481   34.2358 H   0  0  0  0  0  0  0  0  0  0  0  0
   44.2250   36.1487   34.2655 H   0  0  0  0  0  0  0  0  0  0  0  0
   44.8519   36.4410   32.6203 H   0  0  0  0  0  0  0  0  0  0  0  0
   45.6764   38.5980   33.1909 H   0  0  0  0  0  0  0  0  0  0  0  0
   45.9191   37.7736   34.7427 H   0  0  0  0  0  0  0  0  0  0  0  0
   39.2576   43.6704   33.5176 H   0  0  0  0  0  0  0  0  0  0  0  0
   42.1802   36.7790   33.2609 H   0  0  0  0  0  0  0  0  0  0  0  0
   42.9923   37.7125   32.0147 H   0  0  0  0  0  0  0  0  0  0  0  0
   44.4696   40.0737   34.6067 H   0  0  0  0  0  0  0  0  0  0  0  0
   44.0069   38.7562   35.6949 H   0  0  0  0  0  0  0  0  0  0  0  0
   41.9972   38.6549   34.6405 H   0  0  0  0  0  0  0  0  0  0  0  0
  1 15  2  0  0  0  0
  2 16  2  0  0  0  0
  3  6  1  0  0  0  0
  3 17  2  0  0  0  0
  4  7  1  0  0  0  0
  4 15  1  0  0  0  0
  4 19  1  0  0  0  0
  5 16  1  0  0  0  0
  5 18  1  0  0  0  0
  5 20  1  0  0  0  0
  6  8  2  0  0  0  0
  6 21  1  0  0  0  0
  7 17  1  0  0  0  0
  7 22  1  0  0  0  0
  7 23  1  0  0  0  0
  8  9  1  0  0  0  0
  8 24  1  0  0  0  0
  9 12  2  0  0  0  0
  9 25  1  0  0  0  0
 10 11  1  0  0  0  0
 10 13  1  0  0  0  0
 10 26  1  0  0  0  0
 10 27  1  0  0  0  0
 11 14  1  0  0  0  0
 11 28  1  0  0  0  0
 11 29  1  0  0  0  0
 12 17  1  0  0  0  0
 12 30  1  0  0  0  0
 13 18  1  0  0  0  0
 13 31  1  0  0  0  0
 13 32  1  0  0  0  0
 14 18  1  0  0  0  0
 14 33  1  0  0  0  0
 14 34  1  0  0  0  0
 15 16  1  0  0  0  0
 18 35  1  0  0  0  0
M  END
$$$$
