ligand-3
  PyMOL2.5          3D                             0

 27 29  0  0  0  0  0  0  0  0999 V2000
   39.2512   44.8430   32.1483 F   0  0  0  0  0  0  0  0  0  0  0  0
   34.9223   50.1032   36.4350 O   0  0  0  0  0  0  0  0  0  0  0  0
   36.6668   49.2152   34.1752 O   0  0  0  0  0  0  0  0  0  0  0  0
   35.3731   46.4221   35.7874 N   0  0  0  0  0  0  0  0  0  0  0  0
   36.9502   49.0121   35.5980 C   0  0  0  0  0  0  0  0  0  0  0  0
   37.9774   44.4035   34.1000 C   0  0  0  0  0  0  0  0  0  0  0  0
   36.9926   44.8088   35.0188 C   0  0  0  0  0  0  0  0  0  0  0  0
   37.6053   46.4304   32.8130 C   0  0  0  0  0  0  0  0  0  0  0  0
   34.5050   48.1110   34.2184 C   0  0  0  0  0  0  0  0  0  0  0  0
   38.2838   45.2189   33.0084 C   0  0  0  0  0  0  0  0  0  0  0  0
   35.6074   48.8483   36.3744 C   0  0  0  0  0  0  0  0  0  0  0  0
   35.8894   48.1598   33.5427 C   0  0  0  0  0  0  0  0  0  0  0  0
   34.7261   47.7592   35.6987 C   0  0  0  0  0  0  0  0  0  0  0  0
   36.3090   46.0102   34.8319 C   0  0  0  0  0  0  0  0  0  0  0  0
   36.6070   46.8269   33.7133 C   0  0  0  0  0  0  0  0  0  0  0  0
   34.0069   49.9196   36.7802 H   0  0  0  0  0  0  0  0  0  0  0  0
   35.6056   46.1143   36.7322 H   0  0  0  0  0  0  0  0  0  0  0  0
   37.5025   49.8751   35.9887 H   0  0  0  0  0  0  0  0  0  0  0  0
   37.5790   48.1253   35.7340 H   0  0  0  0  0  0  0  0  0  0  0  0
   38.5004   43.4619   34.2371 H   0  0  0  0  0  0  0  0  0  0  0  0
   36.7626   44.1860   35.8797 H   0  0  0  0  0  0  0  0  0  0  0  0
   37.8530   47.0520   31.9613 H   0  0  0  0  0  0  0  0  0  0  0  0
   33.8752   47.3647   33.7309 H   0  0  0  0  0  0  0  0  0  0  0  0
   34.0008   49.0808   34.1137 H   0  0  0  0  0  0  0  0  0  0  0  0
   35.8424   48.5282   37.3995 H   0  0  0  0  0  0  0  0  0  0  0  0
   35.7708   48.3750   32.4767 H   0  0  0  0  0  0  0  0  0  0  0  0
   33.7478   47.7147   36.2031 H   0  0  0  0  0  0  0  0  0  0  0  0
  1 10  1  0  0  0  0
  2 11  1  0  0  0  0
  2 16  1  0  0  0  0
  3  5  1  0  0  0  0
  3 12  1  0  0  0  0
  4 13  1  0  0  0  0
  4 14  1  0  0  0  0
  4 17  1  0  0  0  0
  5 11  1  0  0  0  0
  5 18  1  0  0  0  0
  5 19  1  0  0  0  0
  6  7  2  0  0  0  0
  6 10  1  0  0  0  0
  6 20  1  0  0  0  0
  7 14  1  0  0  0  0
  7 21  1  0  0  0  0
  8 10  2  0  0  0  0
  8 15  1  0  0  0  0
  8 22  1  0  0  0  0
  9 12  1  0  0  0  0
  9 13  1  0  0  0  0
  9 23  1  0  0  0  0
  9 24  1  0  0  0  0
 11 13  1  0  0  0  0
 11 25  1  0  0  0  0
 12 15  1  0  0  0  0
 12 26  1  0  0  0  0
 13 27  1  0  0  0  0
 14 15  2  0  0  0  0
M  END
$$$$
