ligand-4
  PyMOL2.5          3D                             0

 34 36  0  0  0  0  0  0  0  0999 V2000
   35.2071   51.0139   36.3149 O   0  0  0  0  0  0  0  0  0  0  0  0
   38.1020   43.9793   34.3019 O   0  0  0  0  0  0  0  0  0  0  0  0
   38.3958   45.0742   32.2670 O   0  0  0  0  0  0  0  0  0  0  0  0
   35.0570   47.3523   36.0189 N   0  0  0  0  0  0  0  0  0  0  0  0
   35.5923   49.8889   34.3564 N   0  0  0  0  0  0  0  0  0  0  0  0
   38.0387   50.1233   34.8186 C   0  0  0  0  0  0  0  0  0  0  0  0
   38.8541   43.9279   33.0495 C   0  0  0  0  0  0  0  0  0  0  0  0
   33.6907   47.8157   35.8024 C   0  0  0  0  0  0  0  0  0  0  0  0
   36.8181   50.6624   34.0529 C   0  0  0  0  0  0  0  0  0  0  0  0
   35.2777   48.8034   33.4008 C   0  0  0  0  0  0  0  0  0  0  0  0
   33.5766   49.3559   35.7605 C   0  0  0  0  0  0  0  0  0  0  0  0
   36.5184   45.6116   35.2552 C   0  0  0  0  0  0  0  0  0  0  0  0
   36.8175   46.9133   32.7489 C   0  0  0  0  0  0  0  0  0  0  0  0
   34.8718   50.1395   35.5177 C   0  0  0  0  0  0  0  0  0  0  0  0
   37.3465   45.1017   34.2467 C   0  0  0  0  0  0  0  0  0  0  0  0
   37.5004   45.7429   33.0537 C   0  0  0  0  0  0  0  0  0  0  0  0
   35.8351   46.8224   35.0001 C   0  0  0  0  0  0  0  0  0  0  0  0
   35.9698   47.4732   33.7368 C   0  0  0  0  0  0  0  0  0  0  0  0
   35.3469   47.1479   36.9832 H   0  0  0  0  0  0  0  0  0  0  0  0
   38.9024   50.7993   34.6923 H   0  0  0  0  0  0  0  0  0  0  0  0
   37.8279   50.0415   35.8972 H   0  0  0  0  0  0  0  0  0  0  0  0
   38.3189   49.1397   34.4481 H   0  0  0  0  0  0  0  0  0  0  0  0
   38.6460   42.9949   32.5139 H   0  0  0  0  0  0  0  0  0  0  0  0
   39.9224   44.0255   33.2592 H   0  0  0  0  0  0  0  0  0  0  0  0
   33.0416   47.4436   36.5987 H   0  0  0  0  0  0  0  0  0  0  0  0
   33.2984   47.4006   34.8614 H   0  0  0  0  0  0  0  0  0  0  0  0
   36.6592   51.7148   34.3140 H   0  0  0  0  0  0  0  0  0  0  0  0
   37.0285   50.6242   32.9751 H   0  0  0  0  0  0  0  0  0  0  0  0
   35.5886   49.1154   32.4016 H   0  0  0  0  0  0  0  0  0  0  0  0
   34.1978   48.6568   33.3313 H   0  0  0  0  0  0  0  0  0  0  0  0
   33.1884   49.7040   36.7244 H   0  0  0  0  0  0  0  0  0  0  0  0
   32.8449   49.6434   35.0114 H   0  0  0  0  0  0  0  0  0  0  0  0
   36.4373   45.0985   36.2080 H   0  0  0  0  0  0  0  0  0  0  0  0
   36.9586   47.3861   31.7869 H   0  0  0  0  0  0  0  0  0  0  0  0
  1 14  2  0  0  0  0
  2  7  1  0  0  0  0
  2 15  1  0  0  0  0
  3  7  1  0  0  0  0
  3 16  1  0  0  0  0
  4  8  1  0  0  0  0
  4 17  1  0  0  0  0
  4 19  1  0  0  0  0
  5  9  1  0  0  0  0
  5 10  1  0  0  0  0
  5 14  1  0  0  0  0
  6  9  1  0  0  0  0
  6 20  1  0  0  0  0
  6 21  1  0  0  0  0
  6 22  1  0  0  0  0
  7 23  1  0  0  0  0
  7 24  1  0  0  0  0
  8 11  1  0  0  0  0
  8 25  1  0  0  0  0
  8 26  1  0  0  0  0
  9 27  1  0  0  0  0
  9 28  1  0  0  0  0
 10 18  1  0  0  0  0
 10 29  1  0  0  0  0
 10 30  1  0  0  0  0
 11 14  1  0  0  0  0
 11 31  1  0  0  0  0
 11 32  1  0  0  0  0
 12 15  1  0  0  0  0
 12 17  2  0  0  0  0
 12 33  1  0  0  0  0
 13 16  1  0  0  0  0
 13 18  2  0  0  0  0
 13 34  1  0  0  0  0
 15 16  2  0  0  0  0
 17 18  1  0  0  0  0
M  END
$$$$
