ligand-39
  PyMOL2.5          3D                             0

 58 63  0  0  0  0  0  0  0  0999 V2000
   39.5371   45.2558   32.1049 C   0  0  0  0  0  0  0  0  0  0  0  0
   38.4723   45.5896   33.1285 C   0  0  0  0  0  0  0  0  0  0  0  0
   40.6542   44.4383   32.6212 N   0  0  0  0  0  0  0  0  0  0  0  0
   41.1512   43.5199   30.6270 O   0  0  0  0  0  0  0  0  0  0  0  0
   38.1800   44.7288   34.2020 C   0  0  0  0  0  0  0  0  0  0  0  0
   41.4127   43.6258   31.8116 C   0  0  0  0  0  0  0  0  0  0  0  0
   37.1768   45.0624   35.1267 C   0  0  0  0  0  0  0  0  0  0  0  0
   42.6183   42.9373   32.4697 C   0  0  0  0  0  0  0  0  0  0  0  0
   36.4459   46.2470   34.9774 C   0  0  0  0  0  0  0  0  0  0  0  0
   36.6885   47.0981   33.8831 C   0  0  0  0  0  0  0  0  0  0  0  0
   42.4473   41.4580   32.6237 N   0  0  0  0  0  0  0  0  0  0  0  0
   37.7115   46.7643   32.9688 C   0  0  0  0  0  0  0  0  0  0  0  0
   42.8076   40.5480   31.6675 C   0  0  0  0  0  0  0  0  0  0  0  0
   43.1177   40.8289   30.5229 O   0  0  0  0  0  0  0  0  0  0  0  0
   35.8782   48.3831   33.7327 C   0  0  0  0  0  0  0  0  0  0  0  0
   42.7299   39.1271   32.2532 C   0  0  0  0  0  0  0  0  0  0  0  0
   44.0628   38.3391   32.4230 C   0  0  0  0  0  0  0  0  0  0  0  0
   35.5120   46.5901   35.9532 N   0  0  0  0  0  0  0  0  0  0  0  0
   45.1791   39.2614   32.9932 C   0  0  0  0  0  0  0  0  0  0  0  0
   34.5159   48.2393   34.4305 C   0  0  0  0  0  0  0  0  0  0  0  0
   44.7367   39.5006   34.4568 C   0  0  0  0  0  0  0  0  0  0  0  0
   43.4203   38.6879   34.5537 C   0  0  0  0  0  0  0  0  0  0  0  0
   36.5744   49.4877   34.3665 O   0  0  0  0  0  0  0  0  0  0  0  0
   36.9107   49.2926   35.7717 C   0  0  0  0  0  0  0  0  0  0  0  0
   43.7380   37.4881   33.6561 C   0  0  0  0  0  0  0  0  0  0  0  0
   35.6156   49.0081   36.5902 C   0  0  0  0  0  0  0  0  0  0  0  0
   42.2776   39.3664   33.7166 C   0  0  0  0  0  0  0  0  0  0  0  0
   42.1644   40.8768   33.8280 C   0  0  0  0  0  0  0  0  0  0  0  0
   34.7800   47.8744   35.9041 C   0  0  0  0  0  0  0  0  0  0  0  0
   41.8617   41.4963   34.8346 O   0  0  0  0  0  0  0  0  0  0  0  0
   34.8400   50.2122   36.7403 O   0  0  0  0  0  0  0  0  0  0  0  0
   42.7753   43.4042   33.4434 H   0  0  0  0  0  0  0  0  0  0  0  0
   43.4996   43.1437   31.8543 H   0  0  0  0  0  0  0  0  0  0  0  0
   33.9059   49.9372   36.8846 H   0  0  0  0  0  0  0  0  0  0  0  0
   40.9493   44.5544   33.5864 H   0  0  0  0  0  0  0  0  0  0  0  0
   35.7649   46.2465   36.8867 H   0  0  0  0  0  0  0  0  0  0  0  0
   37.3994   50.1889   36.1716 H   0  0  0  0  0  0  0  0  0  0  0  0
   37.6140   48.4583   35.8913 H   0  0  0  0  0  0  0  0  0  0  0  0
   39.0576   44.7305   31.2659 H   0  0  0  0  0  0  0  0  0  0  0  0
   39.9492   46.1944   31.6935 H   0  0  0  0  0  0  0  0  0  0  0  0
   36.9694   44.4017   35.9620 H   0  0  0  0  0  0  0  0  0  0  0  0
   38.7229   43.7954   34.3088 H   0  0  0  0  0  0  0  0  0  0  0  0
   46.1466   38.7360   32.9677 H   0  0  0  0  0  0  0  0  0  0  0  0
   45.2936   40.1921   32.4270 H   0  0  0  0  0  0  0  0  0  0  0  0
   44.6093   40.5709   34.6771 H   0  0  0  0  0  0  0  0  0  0  0  0
   45.4834   39.1048   35.1481 H   0  0  0  0  0  0  0  0  0  0  0  0
   33.9192   47.4638   33.9491 H   0  0  0  0  0  0  0  0  0  0  0  0
   33.9525   49.1727   34.3534 H   0  0  0  0  0  0  0  0  0  0  0  0
   37.9089   47.4351   32.1333 H   0  0  0  0  0  0  0  0  0  0  0  0
   44.5989   36.9024   34.0188 H   0  0  0  0  0  0  0  0  0  0  0  0
   42.8863   36.8133   33.5108 H   0  0  0  0  0  0  0  0  0  0  0  0
   35.9074   48.6541   37.5943 H   0  0  0  0  0  0  0  0  0  0  0  0
   35.7168   48.5965   32.6604 H   0  0  0  0  0  0  0  0  0  0  0  0
   33.8208   47.7587   36.4284 H   0  0  0  0  0  0  0  0  0  0  0  0
   44.3639   37.7694   31.5365 H   0  0  0  0  0  0  0  0  0  0  0  0
   43.1422   38.4372   35.5788 H   0  0  0  0  0  0  0  0  0  0  0  0
   41.9854   38.5426   31.6998 H   0  0  0  0  0  0  0  0  0  0  0  0
   41.3015   38.9015   33.9198 H   0  0  0  0  0  0  0  0  0  0  0  0
  1  2  1  0  0  0  0
  1  3  1  0  0  0  0
  1 39  1  0  0  0  0
  1 40  1  0  0  0  0
  2  5  2  0  0  0  0
  2 12  1  0  0  0  0
  3  6  1  0  0  0  0
  3 35  1  0  0  0  0
  4  6  2  0  0  0  0
  5  7  1  0  0  0  0
  5 42  1  0  0  0  0
  6  8  1  0  0  0  0
  7  9  2  0  0  0  0
  7 41  1  0  0  0  0
  8 11  1  0  0  0  0
  8 32  1  0  0  0  0
  8 33  1  0  0  0  0
  9 10  1  0  0  0  0
  9 18  1  0  0  0  0
 10 12  2  0  0  0  0
 10 15  1  0  0  0  0
 11 13  1  0  0  0  0
 11 28  1  0  0  0  0
 12 49  1  0  0  0  0
 13 14  2  0  0  0  0
 13 16  1  0  0  0  0
 15 20  1  0  0  0  0
 15 23  1  0  0  0  0
 15 53  1  0  0  0  0
 16 17  1  0  0  0  0
 16 27  1  0  0  0  0
 16 57  1  0  0  0  0
 17 19  1  0  0  0  0
 17 25  1  0  0  0  0
 17 55  1  0  0  0  0
 18 29  1  0  0  0  0
 18 36  1  0  0  0  0
 19 21  1  0  0  0  0
 19 43  1  0  0  0  0
 19 44  1  0  0  0  0
 20 29  1  0  0  0  0
 20 47  1  0  0  0  0
 20 48  1  0  0  0  0
 21 22  1  0  0  0  0
 21 45  1  0  0  0  0
 21 46  1  0  0  0  0
 22 25  1  0  0  0  0
 22 27  1  0  0  0  0
 22 56  1  0  0  0  0
 23 24  1  0  0  0  0
 24 26  1  0  0  0  0
 24 37  1  0  0  0  0
 24 38  1  0  0  0  0
 25 50  1  0  0  0  0
 25 51  1  0  0  0  0
 26 29  1  0  0  0  0
 26 31  1  0  0  0  0
 26 52  1  0  0  0  0
 27 28  1  0  0  0  0
 27 58  1  0  0  0  0
 28 30  2  0  0  0  0
 29 54  1  0  0  0  0
 31 34  1  0  0  0  0
M  END
$$$$
